test/fixtures/powermodels/case5/sol_ac_pf.json
{
  "termination_status": "LOCALLY_SOLVED",
  "objective": 0.0,
  "solution": {
    "baseMVA": 100.0,
    "gen": {
      "4": {
        "qg": 1.9412480221995239,
        "pg": 0.014322140260967977
      },
      "1": {
        "qg": 0.14590986545977705,
        "pg": 0.39999999999999963
      },
      "5": {
        "qg": -0.3762323531676233,
        "pg": 4.70694
      },
      "2": {
        "qg": 0.14590986545977702,
        "pg": 1.6999999999999995
      },
      "3": {
        "qg": 2.009024184927793,
        "pg": 3.2449799999999995
      }
    },
    "multiinfrastructure": false,
    "multinetwork": false,
    "bus": {
      "4": {
        "va": -1.4491713285803467e-17,
        "vm": 1.0000000000001241
      },
      "1": {
        "va": 0.06257251322870612,
        "vm": 0.9999999999999195
      },
      "10": {
        "va": 0.07646479466552301,
        "vm": 1.0000000000000329
      },
      "2": {
        "va": 0.0005559474413842151,
        "vm": 0.9894018500582452
      },
      "3": {
        "va": 0.008420117241001022,
        "vm": 0.9999999999999221
      }
    },
    "per_unit": true
  }
}

